
**** 11/16/21 19:38:54 ******* PSpice Lite (March 2016) ******* ID# 10813 ****

 ** Profile: "SCHEMATIC1-resonance"  [ D:\College Work\Year 1 Semester 1 (Sem 1)\Electrical Lab\Experiment 5\experiment5-pspicefiles\


 ****     CIRCUIT DESCRIPTION


******************************************************************************




** Creating circuit file "resonance.cir" 
** WARNING: THIS AUTOMATICALLY GENERATED FILE MAY BE OVERWRITTEN BY SUBSEQUENT SIMULATIONS

*Libraries: 
* Profile Libraries :
* Local Libraries :
* From [PSPICE NETLIST] section of C:\Users\Abhinav Srivatsa\AppData\Roaming\SPB_Data\cdssetup\OrCAD_PSpice\17.2.0\PSpice.ini file:
.lib "nomd.lib" 

*Analysis directives: 
.AC DEC 100000 1 100000
.OPTIONS ADVCONV
.PROBE64 V(alias(*)) I(alias(*)) W(alias(*)) D(alias(*)) NOISE(alias(*)) 
.INC "..\SCHEMATIC1.net" 



**** INCLUDING SCHEMATIC1.net ****
* source EXPERIMENT5
R_R1         N00207 N00214  200 TC=0,0 
V_V1         N00207 0 DC 0 AC 20 
C_C2         0 N00228  0.000047  TC=0,0 
L_L1         N00228 N00214  0.047  

**** RESUMING resonance.cir ****
.END

**** 11/16/21 19:38:54 ******* PSpice Lite (March 2016) ******* ID# 10813 ****

 ** Profile: "SCHEMATIC1-resonance"  [ D:\College Work\Year 1 Semester 1 (Sem 1)\Electrical Lab\Experiment 5\experiment5-pspicefiles\


 ****     SMALL SIGNAL BIAS SOLUTION       TEMPERATURE =   27.000 DEG C


******************************************************************************



 NODE   VOLTAGE     NODE   VOLTAGE     NODE   VOLTAGE     NODE   VOLTAGE


(N00207)    0.0000 (N00214)    0.0000 (N00228)    0.0000 




    VOLTAGE SOURCE CURRENTS
    NAME         CURRENT

    V_V1         0.000E+00

    TOTAL POWER DISSIPATION   0.00E+00  WATTS



          JOB CONCLUDED

**** 11/16/21 19:38:54 ******* PSpice Lite (March 2016) ******* ID# 10813 ****

 ** Profile: "SCHEMATIC1-resonance"  [ D:\College Work\Year 1 Semester 1 (Sem 1)\Electrical Lab\Experiment 5\experiment5-pspicefiles\


 ****     JOB STATISTICS SUMMARY


******************************************************************************



  Total job time (using Solver 1)   =        1.72
