
**** 01/03/22 10:40:31 ******* PSpice Lite (March 2016) ******* ID# 10813 ****

 ** Profile: "SCHEMATIC1-maxpower"  [ D:\College Work\Year 1 Semester 1 (Sem 1)\Electrical Lab\FAT\FAT-PSpiceFiles\SCHEMATIC1\maxpowe


 ****     CIRCUIT DESCRIPTION


******************************************************************************




** Creating circuit file "maxpower.cir" 
** WARNING: THIS AUTOMATICALLY GENERATED FILE MAY BE OVERWRITTEN BY SUBSEQUENT SIMULATIONS

*Libraries: 
* Profile Libraries :
* Local Libraries :
* From [PSPICE NETLIST] section of C:\Users\Abhinav Srivatsa\AppData\Roaming\SPB_Data\cdssetup\OrCAD_PSpice\17.2.0\PSpice.ini file:
.lib "nomd.lib" 

*Analysis directives: 
.DC LIN PARAM a 1 200 0.5 
.OPTIONS ADVCONV
.PROBE64 V(alias(*)) I(alias(*)) W(alias(*)) D(alias(*)) NOISE(alias(*)) 
.INC "..\SCHEMATIC1.net" 



**** INCLUDING SCHEMATIC1.net ****
* source FAT
R_R1         N000361 N00137  1 TC=0,0 
R_R2         0 N00137  10 TC=0,0 
R_R3         N00144 N00137  10 TC=0,0 
R_R4         N00144 0  20 TC=0,0 
V_V1         N000361 0 28
R_R5         0 N00144  {a} TC=0,0 
.PARAM  a=1

**** RESUMING maxpower.cir ****
.END


          JOB CONCLUDED

**** 01/03/22 10:40:31 ******* PSpice Lite (March 2016) ******* ID# 10813 ****

 ** Profile: "SCHEMATIC1-maxpower"  [ D:\College Work\Year 1 Semester 1 (Sem 1)\Electrical Lab\FAT\FAT-PSpiceFiles\SCHEMATIC1\maxpowe


 ****     JOB STATISTICS SUMMARY


******************************************************************************



  Total job time (using Solver 1)   =         .02
